<?xml version="1.0" encoding="UTF-8"?>

<!-- generated on 2026-02-03T11:05:52.124594+05:30 by Eclipse SUMO netconvert 1.26.0
<netconvertConfiguration xmlns:xsi="http://www.w3.org/2001/XMLSchema-instance" xsi:noNamespaceSchemaLocation="http://sumo.dlr.de/xsd/netconvertConfiguration.xsd">

    <input>
        <node-files value="intersection_raw.net.xml"/>
        <edge-files value="intersection_raw.net.xml"/>
    </input>

    <output>
        <output-file value="intersection.net.xml"/>
    </output>

</netconvertConfiguration>
-->

<net version="1.20" junctionCornerDetail="5" limitTurnSpeed="5.50" xmlns:xsi="http://www.w3.org/2001/XMLSchema-instance" xsi:noNamespaceSchemaLocation="http://sumo.dlr.de/xsd/net_file.xsd">

    <location netOffset="150.00,150.00" convBoundary="0.00,0.00,300.00,300.00" origBoundary="-150.00,-150.00,150.00,150.00" projParameter="!"/>

    <edge id=":C_0" function="internal">
        <lane id=":C_0_0" index="0" speed="6.51" length="9.03" shape="148.40,157.20 148.05,154.75 147.00,153.00 145.25,151.95 142.80,151.60"/>
    </edge>
    <edge id=":C_1" function="internal">
        <lane id=":C_1_0" index="0" speed="13.00" length="14.40" shape="148.40,157.20 148.40,142.80"/>
    </edge>
    <edge id=":C_2" function="internal">
        <lane id=":C_2_0" index="0" speed="8.00" length="4.07" shape="148.40,157.20 148.95,153.35 149.04,153.20"/>
    </edge>
    <edge id=":C_3" function="internal">
        <lane id=":C_3_0" index="0" speed="3.65" length="1.44" shape="148.40,157.20 149.20,156.00"/>
    </edge>
    <edge id=":C_16" function="internal">
        <lane id=":C_16_0" index="0" speed="8.00" length="10.13" shape="149.04,153.20 150.60,150.60 153.35,148.95 157.20,148.40"/>
    </edge>
    <edge id=":C_17" function="internal">
        <lane id=":C_17_0" index="0" speed="3.65" length="3.23" shape="149.20,156.00 150.00,155.60 150.80,156.00 151.60,157.20"/>
    </edge>
    <edge id=":C_4" function="internal">
        <lane id=":C_4_0" index="0" speed="6.51" length="9.03" shape="157.20,151.60 154.75,151.95 153.00,153.00 151.95,154.75 151.60,157.20"/>
    </edge>
    <edge id=":C_5" function="internal">
        <lane id=":C_5_0" index="0" speed="13.00" length="14.40" shape="157.20,151.60 142.80,151.60"/>
    </edge>
    <edge id=":C_6" function="internal">
        <lane id=":C_6_0" index="0" speed="8.00" length="4.07" shape="157.20,151.60 153.35,151.05 153.20,150.96"/>
    </edge>
    <edge id=":C_7" function="internal">
        <lane id=":C_7_0" index="0" speed="3.65" length="1.44" shape="157.20,151.60 156.00,150.80"/>
    </edge>
    <edge id=":C_18" function="internal">
        <lane id=":C_18_0" index="0" speed="8.00" length="10.13" shape="153.20,150.96 150.60,149.40 148.95,146.65 148.40,142.80"/>
    </edge>
    <edge id=":C_19" function="internal">
        <lane id=":C_19_0" index="0" speed="3.65" length="3.23" shape="156.00,150.80 155.60,150.00 156.00,149.20 157.20,148.40"/>
    </edge>
    <edge id=":C_8" function="internal">
        <lane id=":C_8_0" index="0" speed="6.51" length="9.03" shape="151.60,142.80 151.95,145.25 153.00,147.00 154.75,148.05 157.20,148.40"/>
    </edge>
    <edge id=":C_9" function="internal">
        <lane id=":C_9_0" index="0" speed="13.00" length="14.40" shape="151.60,142.80 151.60,157.20"/>
    </edge>
    <edge id=":C_10" function="internal">
        <lane id=":C_10_0" index="0" speed="8.00" length="4.07" shape="151.60,142.80 151.05,146.65 150.96,146.80"/>
    </edge>
    <edge id=":C_11" function="internal">
        <lane id=":C_11_0" index="0" speed="3.65" length="1.44" shape="151.60,142.80 150.80,144.00"/>
    </edge>
    <edge id=":C_20" function="internal">
        <lane id=":C_20_0" index="0" speed="8.00" length="10.13" shape="150.96,146.80 149.40,149.40 146.65,151.05 142.80,151.60"/>
    </edge>
    <edge id=":C_21" function="internal">
        <lane id=":C_21_0" index="0" speed="3.65" length="3.23" shape="150.80,144.00 150.00,144.40 149.20,144.00 148.40,142.80"/>
    </edge>
    <edge id=":C_12" function="internal">
        <lane id=":C_12_0" index="0" speed="6.51" length="9.03" shape="142.80,148.40 145.25,148.05 147.00,147.00 148.05,145.25 148.40,142.80"/>
    </edge>
    <edge id=":C_13" function="internal">
        <lane id=":C_13_0" index="0" speed="13.00" length="14.40" shape="142.80,148.40 157.20,148.40"/>
    </edge>
    <edge id=":C_14" function="internal">
        <lane id=":C_14_0" index="0" speed="8.00" length="4.07" shape="142.80,148.40 146.65,148.95 146.80,149.04"/>
    </edge>
    <edge id=":C_15" function="internal">
        <lane id=":C_15_0" index="0" speed="3.65" length="1.44" shape="142.80,148.40 144.00,149.20"/>
    </edge>
    <edge id=":C_22" function="internal">
        <lane id=":C_22_0" index="0" speed="8.00" length="10.13" shape="146.80,149.04 149.40,150.60 151.05,153.35 151.60,157.20"/>
    </edge>
    <edge id=":C_23" function="internal">
        <lane id=":C_23_0" index="0" speed="3.65" length="3.23" shape="144.00,149.20 144.40,150.00 144.00,150.80 142.80,151.60"/>
    </edge>
    <edge id=":E_0" function="internal">
        <lane id=":E_0_0" index="0" speed="3.65" length="4.67" shape="300.00,148.40 301.20,149.20 301.60,150.00 301.20,150.80 300.00,151.60"/>
    </edge>
    <edge id=":N_0" function="internal">
        <lane id=":N_0_0" index="0" speed="3.65" length="4.67" shape="151.60,300.00 150.80,301.20 150.00,301.60 149.20,301.20 148.40,300.00"/>
    </edge>
    <edge id=":S_0" function="internal">
        <lane id=":S_0_0" index="0" speed="3.65" length="4.67" shape="148.40,0.00 149.20,-1.20 150.00,-1.60 150.80,-1.20 151.60,0.00"/>
    </edge>
    <edge id=":W_0" function="internal">
        <lane id=":W_0_0" index="0" speed="3.65" length="4.67" shape="0.00,151.60 -1.20,150.80 -1.60,150.00 -1.20,149.20 0.00,148.40"/>
    </edge>

    <edge id="C2E" from="C" to="E" priority="1">
        <lane id="C2E_0" index="0" speed="13.00" length="142.80" shape="157.20,148.40 300.00,148.40"/>
    </edge>
    <edge id="C2N" from="C" to="N" priority="1">
        <lane id="C2N_0" index="0" speed="13.00" length="142.80" shape="151.60,157.20 151.60,300.00"/>
    </edge>
    <edge id="C2S" from="C" to="S" priority="1">
        <lane id="C2S_0" index="0" speed="13.00" length="142.80" shape="148.40,142.80 148.40,0.00"/>
    </edge>
    <edge id="C2W" from="C" to="W" priority="1">
        <lane id="C2W_0" index="0" speed="13.00" length="142.80" shape="142.80,151.60 0.00,151.60"/>
    </edge>
    <edge id="E2C" from="E" to="C" priority="1">
        <lane id="E2C_0" index="0" speed="13.00" length="142.80" shape="300.00,151.60 157.20,151.60"/>
    </edge>
    <edge id="N2C" from="N" to="C" priority="1">
        <lane id="N2C_0" index="0" speed="13.00" length="142.80" shape="148.40,300.00 148.40,157.20"/>
    </edge>
    <edge id="S2C" from="S" to="C" priority="1">
        <lane id="S2C_0" index="0" speed="13.00" length="142.80" shape="151.60,0.00 151.60,142.80"/>
    </edge>
    <edge id="W2C" from="W" to="C" priority="1">
        <lane id="W2C_0" index="0" speed="13.00" length="142.80" shape="0.00,148.40 142.80,148.40"/>
    </edge>

    <tlLogic id="C" type="static" programID="0" offset="0">
        <phase duration="42" state="GGggrrrrGGggrrrr"/>
        <phase duration="3"  state="yyyyrrrryyyyrrrr"/>
        <phase duration="42" state="rrrrGGggrrrrGGgg"/>
        <phase duration="3"  state="rrrryyyyrrrryyyy"/>
    </tlLogic>

    <junction id="C" type="traffic_light" x="150.00" y="150.00" incLanes="N2C_0 E2C_0 S2C_0 W2C_0" intLanes=":C_0_0 :C_1_0 :C_16_0 :C_17_0 :C_4_0 :C_5_0 :C_18_0 :C_19_0 :C_8_0 :C_9_0 :C_20_0 :C_21_0 :C_12_0 :C_13_0 :C_22_0 :C_23_0" shape="146.80,157.20 153.20,157.20 153.64,154.98 154.20,154.20 154.98,153.64 155.98,153.31 157.20,153.20 157.20,146.80 154.98,146.36 154.20,145.80 153.64,145.02 153.31,144.02 153.20,142.80 146.80,142.80 146.36,145.02 145.80,145.80 145.02,146.36 144.02,146.69 142.80,146.80 142.80,153.20 145.02,153.64 145.80,154.20 146.36,154.98 146.69,155.98">
        <request index="0"  response="0000000000000000" foes="1000010000100000" cont="0"/>
        <request index="1"  response="0100000001000000" foes="0111110001100000" cont="0"/>
        <request index="2"  response="0100011101000000" foes="0110011111100000" cont="1"/>
        <request index="3"  response="0100001000010000" foes="0100001000010000" cont="1"/>
        <request index="4"  response="0000001000000000" foes="0100001000001000" cont="0"/>
        <request index="5"  response="0000011000000111" foes="1100011000000111" cont="0"/>
        <request index="6"  response="0111011000000110" foes="0111111000000110" cont="1"/>
        <request index="7"  response="0010000100000100" foes="0010000100000100" cont="1"/>
        <request index="8"  response="0000000000000000" foes="0010000010000100" cont="0"/>
        <request index="9"  response="0100000001000000" foes="0110000001111100" cont="0"/>
        <request index="10" response="0100000001000011" foes="1110000001100111" cont="1"/>
        <request index="11" response="0001000001000010" foes="0001000001000010" cont="1"/>
        <request index="12" response="0000000000000010" foes="0000100001000010" cont="0"/>
        <request index="13" response="0000011100000110" foes="0000011111000110" cont="0"/>
        <request index="14" response="0000011000110110" foes="0000011001111110" cont="1"/>
        <request index="15" response="0000010000100001" foes="0000010000100001" cont="1"/>
    </junction>
    <junction id="E" type="priority" x="300.00" y="150.00" incLanes="C2E_0" intLanes=":E_0_0" shape="300.00,150.00 300.00,146.80 300.00,150.00">
        <request index="0" response="0" foes="0" cont="0"/>
    </junction>
    <junction id="N" type="priority" x="150.00" y="300.00" incLanes="C2N_0" intLanes=":N_0_0" shape="150.00,300.00 153.20,300.00 150.00,300.00">
        <request index="0" response="0" foes="0" cont="0"/>
    </junction>
    <junction id="S" type="priority" x="150.00" y="0.00" incLanes="C2S_0" intLanes=":S_0_0" shape="150.00,0.00 146.80,0.00 150.00,0.00">
        <request index="0" response="0" foes="0" cont="0"/>
    </junction>
    <junction id="W" type="priority" x="0.00" y="150.00" incLanes="C2W_0" intLanes=":W_0_0" shape="0.00,150.00 0.00,153.20 0.00,150.00">
        <request index="0" response="0" foes="0" cont="0"/>
    </junction>

    <junction id=":C_16_0" type="internal" x="149.04" y="153.20" incLanes=":C_2_0 S2C_0" intLanes=":C_5_0 :C_6_0 :C_7_0 :C_8_0 :C_9_0 :C_13_0 :C_14_0"/>
    <junction id=":C_17_0" type="internal" x="149.20" y="156.00" incLanes=":C_3_0 E2C_0 S2C_0 W2C_0" intLanes=":C_4_0 :C_9_0 :C_14_0"/>
    <junction id=":C_18_0" type="internal" x="153.20" y="150.96" incLanes=":C_6_0 W2C_0" intLanes=":C_1_0 :C_2_0 :C_9_0 :C_10_0 :C_11_0 :C_12_0 :C_13_0"/>
    <junction id=":C_19_0" type="internal" x="156.00" y="150.80" incLanes=":C_7_0 N2C_0 S2C_0 W2C_0" intLanes=":C_2_0 :C_8_0 :C_13_0"/>
    <junction id=":C_20_0" type="internal" x="150.96" y="146.80" incLanes=":C_10_0 N2C_0" intLanes=":C_0_0 :C_1_0 :C_5_0 :C_6_0 :C_13_0 :C_14_0 :C_15_0"/>
    <junction id=":C_21_0" type="internal" x="150.80" y="144.00" incLanes=":C_11_0 E2C_0 N2C_0 W2C_0" intLanes=":C_1_0 :C_6_0 :C_12_0"/>
    <junction id=":C_22_0" type="internal" x="146.80" y="149.04" incLanes=":C_14_0 E2C_0" intLanes=":C_1_0 :C_2_0 :C_3_0 :C_4_0 :C_5_0 :C_9_0 :C_10_0"/>
    <junction id=":C_23_0" type="internal" x="144.00" y="149.20" incLanes=":C_15_0 E2C_0 N2C_0 S2C_0" intLanes=":C_0_0 :C_5_0 :C_10_0"/>

    <connection from="C2E" to="E2C" fromLane="0" toLane="0" via=":E_0_0" dir="t" state="M"/>
    <connection from="C2N" to="N2C" fromLane="0" toLane="0" via=":N_0_0" dir="t" state="M"/>
    <connection from="C2S" to="S2C" fromLane="0" toLane="0" via=":S_0_0" dir="t" state="M"/>
    <connection from="C2W" to="W2C" fromLane="0" toLane="0" via=":W_0_0" dir="t" state="M"/>
    <connection from="E2C" to="C2N" fromLane="0" toLane="0" via=":C_4_0" tl="C" linkIndex="4" dir="r" state="o"/>
    <connection from="E2C" to="C2W" fromLane="0" toLane="0" via=":C_5_0" tl="C" linkIndex="5" dir="s" state="o"/>
    <connection from="E2C" to="C2S" fromLane="0" toLane="0" via=":C_6_0" tl="C" linkIndex="6" dir="l" state="o"/>
    <connection from="E2C" to="C2E" fromLane="0" toLane="0" via=":C_7_0" tl="C" linkIndex="7" dir="t" state="o"/>
    <connection from="N2C" to="C2W" fromLane="0" toLane="0" via=":C_0_0" tl="C" linkIndex="0" dir="r" state="O"/>
    <connection from="N2C" to="C2S" fromLane="0" toLane="0" via=":C_1_0" tl="C" linkIndex="1" dir="s" state="O"/>
    <connection from="N2C" to="C2E" fromLane="0" toLane="0" via=":C_2_0" tl="C" linkIndex="2" dir="l" state="o"/>
    <connection from="N2C" to="C2N" fromLane="0" toLane="0" via=":C_3_0" tl="C" linkIndex="3" dir="t" state="o"/>
    <connection from="S2C" to="C2E" fromLane="0" toLane="0" via=":C_8_0" tl="C" linkIndex="8" dir="r" state="O"/>
    <connection from="S2C" to="C2N" fromLane="0" toLane="0" via=":C_9_0" tl="C" linkIndex="9" dir="s" state="O"/>
    <connection from="S2C" to="C2W" fromLane="0" toLane="0" via=":C_10_0" tl="C" linkIndex="10" dir="l" state="o"/>
    <connection from="S2C" to="C2S" fromLane="0" toLane="0" via=":C_11_0" tl="C" linkIndex="11" dir="t" state="o"/>
    <connection from="W2C" to="C2S" fromLane="0" toLane="0" via=":C_12_0" tl="C" linkIndex="12" dir="r" state="o"/>
    <connection from="W2C" to="C2E" fromLane="0" toLane="0" via=":C_13_0" tl="C" linkIndex="13" dir="s" state="o"/>
    <connection from="W2C" to="C2N" fromLane="0" toLane="0" via=":C_14_0" tl="C" linkIndex="14" dir="l" state="o"/>
    <connection from="W2C" to="C2W" fromLane="0" toLane="0" via=":C_15_0" tl="C" linkIndex="15" dir="t" state="o"/>

    <connection from=":C_0" to="C2W" fromLane="0" toLane="0" dir="r" state="M"/>
    <connection from=":C_1" to="C2S" fromLane="0" toLane="0" dir="s" state="M"/>
    <connection from=":C_2" to="C2E" fromLane="0" toLane="0" via=":C_16_0" dir="l" state="m"/>
    <connection from=":C_16" to="C2E" fromLane="0" toLane="0" dir="l" state="M"/>
    <connection from=":C_3" to="C2N" fromLane="0" toLane="0" via=":C_17_0" dir="t" state="m"/>
    <connection from=":C_17" to="C2N" fromLane="0" toLane="0" dir="t" state="M"/>
    <connection from=":C_4" to="C2N" fromLane="0" toLane="0" dir="r" state="M"/>
    <connection from=":C_5" to="C2W" fromLane="0" toLane="0" dir="s" state="M"/>
    <connection from=":C_6" to="C2S" fromLane="0" toLane="0" via=":C_18_0" dir="l" state="m"/>
    <connection from=":C_18" to="C2S" fromLane="0" toLane="0" dir="l" state="M"/>
    <connection from=":C_7" to="C2E" fromLane="0" toLane="0" via=":C_19_0" dir="t" state="m"/>
    <connection from=":C_19" to="C2E" fromLane="0" toLane="0" dir="t" state="M"/>
    <connection from=":C_8" to="C2E" fromLane="0" toLane="0" dir="r" state="M"/>
    <connection from=":C_9" to="C2N" fromLane="0" toLane="0" dir="s" state="M"/>
    <connection from=":C_10" to="C2W" fromLane="0" toLane="0" via=":C_20_0" dir="l" state="m"/>
    <connection from=":C_20" to="C2W" fromLane="0" toLane="0" dir="l" state="M"/>
    <connection from=":C_11" to="C2S" fromLane="0" toLane="0" via=":C_21_0" dir="t" state="m"/>
    <connection from=":C_21" to="C2S" fromLane="0" toLane="0" dir="t" state="M"/>
    <connection from=":C_12" to="C2S" fromLane="0" toLane="0" dir="r" state="M"/>
    <connection from=":C_13" to="C2E" fromLane="0" toLane="0" dir="s" state="M"/>
    <connection from=":C_14" to="C2N" fromLane="0" toLane="0" via=":C_22_0" dir="l" state="m"/>
    <connection from=":C_22" to="C2N" fromLane="0" toLane="0" dir="l" state="M"/>
    <connection from=":C_15" to="C2W" fromLane="0" toLane="0" via=":C_23_0" dir="t" state="m"/>
    <connection from=":C_23" to="C2W" fromLane="0" toLane="0" dir="t" state="M"/>
    <connection from=":E_0" to="E2C" fromLane="0" toLane="0" dir="t" state="M"/>
    <connection from=":N_0" to="N2C" fromLane="0" toLane="0" dir="t" state="M"/>
    <connection from=":S_0" to="S2C" fromLane="0" toLane="0" dir="t" state="M"/>
    <connection from=":W_0" to="W2C" fromLane="0" toLane="0" dir="t" state="M"/>

</net>
