<?xml version="1.0" encoding="UTF-8"?>

<configuration>
    <input>
        
        <net-file value="../network/intersection.net.xml"/>
        <route-files value="../routes/vehicles.rou.xml"/>
    </input>

    <time>
        <begin value="0"/>
        <end value="300"/>

    </time>
</configuration>
